/*--------------------------------*- C++ -*----------------------------------*\
|       o          |                                                          |
|    o     o       | HELYX-OS                                                  |
|   o   O   o      | Version: v2.4.0                                           |
|    o     o       | Web:     http://www.engys.com                            |
|       o          |                                                          |
\*---------------------------------------------------------------------------*/
FoamFile
{
    version 2.0;
    format ascii;
    class dictionary;
    location system;
    object blockMeshDict;
}

    convertToMeters 1;
    vertices  
    (
      ( -0.0074999998882412915 -0.008500000052154065 -0.0025)
      ( 0.007500000111758708 -0.008500000052154065 -0.0025)
      ( 0.007500000111758708 0.008999999947845937 -0.0025)
      ( -0.0074999998882412915 0.008999999947845937 -0.0025)
      ( -0.0074999998882412915 -0.008500000052154065 0.004999999999999999)
      ( 0.007500000111758708 -0.008500000052154065 0.004999999999999999)
      ( 0.007500000111758708 0.008999999947845937 0.004999999999999999)
      ( -0.0074999998882412915 0.008999999947845937 0.004999999999999999)
    );
    blocks  
    ( hex
      ( 0 1 2 3 4 5 6 7)
      ( @@blockMeshRes@@ @@blockMeshRes@@ @@blockMeshRes@@) simpleGrading
      ( 1 1 1)
    );
    edges  
    (
    );
    patches  
    ( wall ffminx
      (
      ( 0 4 7 3)) wall ffmaxx
      (
      ( 1 2 6 5)) wall ffminy
      (
      ( 0 1 5 4)) wall ffmaxy
      (
      ( 3 7 6 2)) wall ffminz
      (
      ( 0 3 2 1)) wall ffmaxz
      (
      ( 4 5 6 7))
    );
    mergePatchPairs  
    (
    );